Cases/test/data/branch_specific/scenario_results_case9Q.csv
line_id,y_cos_f_w1_vm_from,y_cos_f_w2_vm_to,y_cos_f_w3_theta_i,y_cos_f_w4_theta_j,y_cos_f_bias,y_sin_f_w1_vm_from,y_sin_f_w2_vm_to,y_sin_f_w3_theta_i,y_sin_f_w4_theta_j,y_sin_f_bias
1_4,-0.029683565930503197,-0.9997916325702545,-6.703355382564489e-33,4.714834297552561,2.634596141763869,0.006073323101617734,-0.031195776671153863,1.4786712213905159e-33,-1.0401345440646297,0.036889724445410235
3_6,0.0003853309939903342,0.0003450323418431033,-0.014365843921589396,-0.011662989748252056,1.194065683137973,-0.003637399980829986,-0.003105290486165233,0.1355992176119212,0.11008192009140028,0.05321705186121581
4_5,-0.9621659633489421,1.9657153314518803,0.8586765772322577,-0.6135672870180336,0.0246956629810946,-0.021453647195452397,0.6533176959246307,0.28548609328168206,-0.18536145787333416,-0.7072835103174407
5_6,0.2057825742474727,0.000687770949180999,-0.04052899046639356,-0.29138523433413177,0.9454958564132279,0.46147847841940903,0.06465355536660015,-0.0869523567244423,-0.6540064973265196,-0.7162562831432322
6_7,-0.5004424013654258,0.5010028469826596,0.0024549117134661513,0.0019991046511973476,1.2088189234565037,0.006148592171865239,-0.024244471270990088,-0.04948168594479522,-0.05458161956863477,0.05510152055965599
7_8,8.952552837704353e-05,1.337250024163289e-08,0.13249164090223983,0.08268268323509087,1.1992749631925326,-0.031109036850164917,3.375804612977926e-08,0.33421349969740205,0.2092263584741654,-0.004483423625940314
8_2,0.004067440587867649,-0.992974588405648,0.41978156706842346,0.5972133758811926,2.3293342875396954,-0.0005153783660144517,-0.0034025402836280194,-0.1954658302863036,-0.2890302304552444,-0.048596352456715085
8_9,1.9253841412248378,8.404385448911993,2.4430399241406544,-15.33686252133314,-12.05625737267319,-0.052037381812365946,-0.848062312466831,0.1020135302372701,0.12502878965879544,1.16061231277219
9_4,0.5662162534879734,0.016512507742406646,0.27668322359118835,0.06956784934883663,0.5258109962880864,0.3117005159756489,-0.023141390573180903,0.15436670728627502,0.038302382958972696,-0.35815036473031375
